* PSpice Model Editor - Version 16.6.0
*$
.model Qbreakn NPN Is=1p BF=200
*$
