* PSpice Model Editor - Version 16.6.0
*$
.model Dbreak D Is=1e-14 Cjo=5pF Rs=.1 M=0.42 VJ=0.75V
*$
